<routes>
        <vType id="typeWO" accel="0.8" decel="4.5" sigma="0.5" length="5" minGap="2.5" maxSpeed="16.27" departSpeed="16.27" guiShape="passenger"/>
        <vType id="typeNS" accel="0.8" decel="4.5" sigma="0.5" length="7" minGap="3" maxSpeed="25" departSpeed="25" guiShape="emergency"/>
        <route id="rnl" edges="-E1 -E0" />
        <route id="lnr" edges="E0 E1" />
        <route id="nns" edges="E2 E3" />
    <vehicle id="nachRechts_0" type="typeWO" route="rnl" depart="0" />
    <vehicle id="nachLinks_1" type="typeWO" route="lnr" depart="1" />
    <vehicle id="nachRechts_2" type="typeWO" route="rnl" depart="2" />
    <vehicle id="nachLinks_3" type="typeWO" route="lnr" depart="3" />
    <vehicle id="nachRechts_4" type="typeWO" route="rnl" depart="3" />
    <vehicle id="nachLinks_5" type="typeWO" route="lnr" depart="4" />
    <vehicle id="nachRechts_6" type="typeWO" route="rnl" depart="4" />
    <vehicle id="nachRechts_7" type="typeWO" route="rnl" depart="5" />
    <vehicle id="nachRechts_8" type="typeWO" route="rnl" depart="6" />
    <vehicle id="nachRechts_9" type="typeWO" route="rnl" depart="7" />
    <vehicle id="nachRechts_10" type="typeWO" route="rnl" depart="8" />
    <vehicle id="nachLinks_11" type="typeWO" route="lnr" depart="9" />
    <vehicle id="nachRechts_12" type="typeWO" route="rnl" depart="11" />
    <vehicle id="nachLinks_13" type="typeWO" route="lnr" depart="14" />
    <vehicle id="nachRechts_14" type="typeWO" route="rnl" depart="14" />
    <vehicle id="nachLinks_15" type="typeWO" route="lnr" depart="15" />
    <vehicle id="nachRechts_16" type="typeWO" route="rnl" depart="15" />
    <vehicle id="nachRechts_17" type="typeWO" route="rnl" depart="16" />
    <vehicle id="nachLinks_18" type="typeWO" route="lnr" depart="17" />
    <vehicle id="nachRechts_19" type="typeWO" route="rnl" depart="17" />
    <vehicle id="nachRechts_20" type="typeWO" route="rnl" depart="19" />
    <vehicle id="nachLinks_21" type="typeWO" route="lnr" depart="22" />
    <vehicle id="nachRechts_22" type="typeWO" route="rnl" depart="22" />
    <vehicle id="nachLinks_23" type="typeWO" route="lnr" depart="23" />
    <vehicle id="nachRechts_24" type="typeWO" route="rnl" depart="23" />
    <vehicle id="nachRechts_25" type="typeWO" route="rnl" depart="24" />
    <vehicle id="nachLinks_26" type="typeWO" route="lnr" depart="25" />
    <vehicle id="nachLinks_27" type="typeWO" route="lnr" depart="26" />
    <vehicle id="nachRechts_28" type="typeWO" route="rnl" depart="26" />
    <vehicle id="nachLinks_29" type="typeWO" route="lnr" depart="27" />
    <vehicle id="nachLinks_30" type="typeWO" route="lnr" depart="28" />
    <vehicle id="nachRechts_31" type="typeWO" route="rnl" depart="28" />
    <vehicle id="nachRechts_32" type="typeWO" route="rnl" depart="29" />
    <vehicle id="nachLinks_33" type="typeWO" route="lnr" depart="30" />
    <vehicle id="nachLinks_34" type="typeWO" route="lnr" depart="31" />
    <vehicle id="nachRechts_35" type="typeWO" route="rnl" depart="31" />
    <vehicle id="nachRechts_36" type="typeWO" route="rnl" depart="33" />
    <vehicle id="nachRechts_37" type="typeWO" route="rnl" depart="35" />
    <vehicle id="nachLinks_38" type="typeWO" route="lnr" depart="36" />
    <vehicle id="nachLinks_39" type="typeWO" route="lnr" depart="37" />
    <vehicle id="nachRechts_40" type="typeWO" route="rnl" depart="41" />
    <vehicle id="nachLinks_41" type="typeWO" route="lnr" depart="42" />
    <vehicle id="nachRechts_42" type="typeWO" route="rnl" depart="43" />
    <vehicle id="nachLinks_43" type="typeWO" route="lnr" depart="45" />
    <vehicle id="nachRechts_44" type="typeWO" route="rnl" depart="45" />
    <vehicle id="nachRechts_45" type="typeWO" route="rnl" depart="46" />
    <vehicle id="nachRechts_46" type="typeWO" route="rnl" depart="47" />
    <vehicle id="nachLinks_47" type="typeWO" route="lnr" depart="48" />
    <vehicle id="nachRechts_48" type="typeWO" route="rnl" depart="48" />
    <vehicle id="nachRechts_49" type="typeWO" route="rnl" depart="49" />
    <vehicle id="nachRechts_50" type="typeWO" route="rnl" depart="51" />
    <vehicle id="nachLinks_51" type="typeWO" route="lnr" depart="52" />
    <vehicle id="nachLinks_52" type="typeWO" route="lnr" depart="53" />
    <vehicle id="nachRechts_53" type="typeWO" route="rnl" depart="53" />
    <vehicle id="nachLinks_54" type="typeWO" route="lnr" depart="54" />
    <vehicle id="nachLinks_55" type="typeWO" route="lnr" depart="55" />
    <vehicle id="nachRechts_56" type="typeWO" route="rnl" depart="55" />
    <vehicle id="nachLinks_57" type="typeWO" route="lnr" depart="56" />
    <vehicle id="nachRechts_58" type="typeWO" route="rnl" depart="56" />
    <vehicle id="nachRechts_59" type="typeWO" route="rnl" depart="57" />
    <vehicle id="nachRechts_60" type="typeWO" route="rnl" depart="58" />
    <vehicle id="nachLinks_61" type="typeWO" route="lnr" depart="59" />
    <vehicle id="nachRechts_62" type="typeWO" route="rnl" depart="59" />
    <vehicle id="nachLinks_63" type="typeWO" route="lnr" depart="61" />
    <vehicle id="nachRechts_64" type="typeWO" route="rnl" depart="61" />
    <vehicle id="nachRechts_65" type="typeWO" route="rnl" depart="62" />
    <vehicle id="nachLinks_66" type="typeWO" route="lnr" depart="63" />
    <vehicle id="nachRechts_67" type="typeWO" route="rnl" depart="63" />
    <vehicle id="nachLinks_68" type="typeWO" route="lnr" depart="64" />
    <vehicle id="nachLinks_69" type="typeWO" route="lnr" depart="68" />
    <vehicle id="nachRechts_70" type="typeWO" route="rnl" depart="68" />
    <vehicle id="nachLinks_71" type="typeWO" route="lnr" depart="69" />
    <vehicle id="nachRechts_72" type="typeWO" route="rnl" depart="69" />
    <vehicle id="nachLinks_73" type="typeWO" route="lnr" depart="70" />
    <vehicle id="nachLinks_74" type="typeWO" route="lnr" depart="71" />
    <vehicle id="nachLinks_75" type="typeWO" route="lnr" depart="73" />
    <vehicle id="nachLinks_76" type="typeWO" route="lnr" depart="76" />
    <vehicle id="nachLinks_77" type="typeWO" route="lnr" depart="77" />
    <vehicle id="nachLinks_78" type="typeWO" route="lnr" depart="78" />
    <vehicle id="nachRechts_79" type="typeWO" route="rnl" depart="78" />
    <vehicle id="nachLinks_80" type="typeWO" route="lnr" depart="79" />
    <vehicle id="nachLinks_81" type="typeWO" route="lnr" depart="80" />
    <vehicle id="nachRechts_82" type="typeWO" route="rnl" depart="81" />
    <vehicle id="nachLinks_83" type="typeWO" route="lnr" depart="82" />
    <vehicle id="nachRechts_84" type="typeWO" route="rnl" depart="82" />
    <vehicle id="nachLinks_85" type="typeWO" route="lnr" depart="83" />
    <vehicle id="nachRechts_86" type="typeWO" route="rnl" depart="83" />
    <vehicle id="nachLinks_87" type="typeWO" route="lnr" depart="84" />
    <vehicle id="nachRechts_88" type="typeWO" route="rnl" depart="84" />
    <vehicle id="nachRechts_89" type="typeWO" route="rnl" depart="85" />
    <vehicle id="nachLinks_90" type="typeWO" route="lnr" depart="86" />
    <vehicle id="nachRechts_91" type="typeWO" route="rnl" depart="87" />
    <vehicle id="down_92" type="typeNS" route="nns" depart="89" color="1,0,0"/>
    <vehicle id="nachRechts_93" type="typeWO" route="rnl" depart="90" />
    <vehicle id="nachRechts_94" type="typeWO" route="rnl" depart="91" />
    <vehicle id="nachLinks_95" type="typeWO" route="lnr" depart="92" />
    <vehicle id="nachRechts_96" type="typeWO" route="rnl" depart="94" />
    <vehicle id="nachLinks_97" type="typeWO" route="lnr" depart="96" />
    <vehicle id="nachRechts_98" type="typeWO" route="rnl" depart="96" />
    <vehicle id="down_99" type="typeNS" route="nns" depart="96" color="1,0,0"/>
    <vehicle id="nachLinks_100" type="typeWO" route="lnr" depart="99" />
    <vehicle id="nachRechts_101" type="typeWO" route="rnl" depart="99" />
    <vehicle id="nachRechts_102" type="typeWO" route="rnl" depart="101" />
    <vehicle id="nachLinks_103" type="typeWO" route="lnr" depart="102" />
    <vehicle id="nachLinks_104" type="typeWO" route="lnr" depart="104" />
    <vehicle id="nachRechts_105" type="typeWO" route="rnl" depart="104" />
    <vehicle id="nachRechts_106" type="typeWO" route="rnl" depart="105" />
    <vehicle id="nachLinks_107" type="typeWO" route="lnr" depart="106" />
    <vehicle id="nachLinks_108" type="typeWO" route="lnr" depart="108" />
    <vehicle id="nachRechts_109" type="typeWO" route="rnl" depart="110" />
    <vehicle id="nachLinks_110" type="typeWO" route="lnr" depart="111" />
    <vehicle id="nachLinks_111" type="typeWO" route="lnr" depart="112" />
    <vehicle id="nachLinks_112" type="typeWO" route="lnr" depart="113" />
    <vehicle id="nachLinks_113" type="typeWO" route="lnr" depart="114" />
    <vehicle id="nachRechts_114" type="typeWO" route="rnl" depart="114" />
    <vehicle id="nachRechts_115" type="typeWO" route="rnl" depart="116" />
    <vehicle id="nachRechts_116" type="typeWO" route="rnl" depart="118" />
    <vehicle id="nachLinks_117" type="typeWO" route="lnr" depart="119" />
    <vehicle id="nachRechts_118" type="typeWO" route="rnl" depart="119" />
    <vehicle id="nachRechts_119" type="typeWO" route="rnl" depart="120" />
    <vehicle id="nachRechts_120" type="typeWO" route="rnl" depart="121" />
    <vehicle id="nachLinks_121" type="typeWO" route="lnr" depart="122" />
    <vehicle id="down_122" type="typeNS" route="nns" depart="122" color="1,0,0"/>
    <vehicle id="nachLinks_123" type="typeWO" route="lnr" depart="125" />
    <vehicle id="nachLinks_124" type="typeWO" route="lnr" depart="126" />
    <vehicle id="nachLinks_125" type="typeWO" route="lnr" depart="127" />
    <vehicle id="nachRechts_126" type="typeWO" route="rnl" depart="127" />
    <vehicle id="nachLinks_127" type="typeWO" route="lnr" depart="128" />
    <vehicle id="nachRechts_128" type="typeWO" route="rnl" depart="128" />
    <vehicle id="nachLinks_129" type="typeWO" route="lnr" depart="129" />
    <vehicle id="nachRechts_130" type="typeWO" route="rnl" depart="131" />
    <vehicle id="nachLinks_131" type="typeWO" route="lnr" depart="132" />
    <vehicle id="nachLinks_132" type="typeWO" route="lnr" depart="133" />
    <vehicle id="nachRechts_133" type="typeWO" route="rnl" depart="133" />
    <vehicle id="nachLinks_134" type="typeWO" route="lnr" depart="134" />
    <vehicle id="nachLinks_135" type="typeWO" route="lnr" depart="135" />
    <vehicle id="nachRechts_136" type="typeWO" route="rnl" depart="135" />
    <vehicle id="nachRechts_137" type="typeWO" route="rnl" depart="136" />
    <vehicle id="nachLinks_138" type="typeWO" route="lnr" depart="138" />
    <vehicle id="nachRechts_139" type="typeWO" route="rnl" depart="138" />
    <vehicle id="nachLinks_140" type="typeWO" route="lnr" depart="139" />
    <vehicle id="nachLinks_141" type="typeWO" route="lnr" depart="140" />
    <vehicle id="nachRechts_142" type="typeWO" route="rnl" depart="141" />
    <vehicle id="nachRechts_143" type="typeWO" route="rnl" depart="142" />
    <vehicle id="nachRechts_144" type="typeWO" route="rnl" depart="143" />
    <vehicle id="nachLinks_145" type="typeWO" route="lnr" depart="144" />
    <vehicle id="nachLinks_146" type="typeWO" route="lnr" depart="145" />
    <vehicle id="nachRechts_147" type="typeWO" route="rnl" depart="145" />
    <vehicle id="nachLinks_148" type="typeWO" route="lnr" depart="146" />
    <vehicle id="nachLinks_149" type="typeWO" route="lnr" depart="151" />
    <vehicle id="nachRechts_150" type="typeWO" route="rnl" depart="151" />
    <vehicle id="nachLinks_151" type="typeWO" route="lnr" depart="153" />
    <vehicle id="nachRechts_152" type="typeWO" route="rnl" depart="153" />
    <vehicle id="nachLinks_153" type="typeWO" route="lnr" depart="154" />
    <vehicle id="nachRechts_154" type="typeWO" route="rnl" depart="154" />
    <vehicle id="nachLinks_155" type="typeWO" route="lnr" depart="155" />
    <vehicle id="nachRechts_156" type="typeWO" route="rnl" depart="155" />
    <vehicle id="nachRechts_157" type="typeWO" route="rnl" depart="156" />
    <vehicle id="nachRechts_158" type="typeWO" route="rnl" depart="157" />
    <vehicle id="nachLinks_159" type="typeWO" route="lnr" depart="158" />
    <vehicle id="nachLinks_160" type="typeWO" route="lnr" depart="160" />
    <vehicle id="nachRechts_161" type="typeWO" route="rnl" depart="160" />
    <vehicle id="nachLinks_162" type="typeWO" route="lnr" depart="162" />
    <vehicle id="nachRechts_163" type="typeWO" route="rnl" depart="163" />
    <vehicle id="nachLinks_164" type="typeWO" route="lnr" depart="164" />
    <vehicle id="nachRechts_165" type="typeWO" route="rnl" depart="164" />
    <vehicle id="nachRechts_166" type="typeWO" route="rnl" depart="165" />
    <vehicle id="nachLinks_167" type="typeWO" route="lnr" depart="166" />
    <vehicle id="nachRechts_168" type="typeWO" route="rnl" depart="166" />
    <vehicle id="nachLinks_169" type="typeWO" route="lnr" depart="167" />
    <vehicle id="nachRechts_170" type="typeWO" route="rnl" depart="167" />
    <vehicle id="nachLinks_171" type="typeWO" route="lnr" depart="168" />
    <vehicle id="nachLinks_172" type="typeWO" route="lnr" depart="169" />
    <vehicle id="nachRechts_173" type="typeWO" route="rnl" depart="169" />
    <vehicle id="nachLinks_174" type="typeWO" route="lnr" depart="170" />
    <vehicle id="nachRechts_175" type="typeWO" route="rnl" depart="170" />
    <vehicle id="nachLinks_176" type="typeWO" route="lnr" depart="171" />
    <vehicle id="nachLinks_177" type="typeWO" route="lnr" depart="172" />
    <vehicle id="nachRechts_178" type="typeWO" route="rnl" depart="172" />
    <vehicle id="down_179" type="typeNS" route="nns" depart="172" color="1,0,0"/>
    <vehicle id="nachLinks_180" type="typeWO" route="lnr" depart="176" />
    <vehicle id="nachRechts_181" type="typeWO" route="rnl" depart="176" />
    <vehicle id="nachLinks_182" type="typeWO" route="lnr" depart="181" />
    <vehicle id="nachRechts_183" type="typeWO" route="rnl" depart="181" />
    <vehicle id="nachRechts_184" type="typeWO" route="rnl" depart="182" />
    <vehicle id="nachLinks_185" type="typeWO" route="lnr" depart="183" />
    <vehicle id="nachLinks_186" type="typeWO" route="lnr" depart="184" />
    <vehicle id="nachRechts_187" type="typeWO" route="rnl" depart="185" />
    <vehicle id="nachRechts_188" type="typeWO" route="rnl" depart="186" />
    <vehicle id="nachLinks_189" type="typeWO" route="lnr" depart="187" />
    <vehicle id="nachRechts_190" type="typeWO" route="rnl" depart="190" />
    <vehicle id="nachRechts_191" type="typeWO" route="rnl" depart="191" />
    <vehicle id="nachRechts_192" type="typeWO" route="rnl" depart="192" />
    <vehicle id="nachRechts_193" type="typeWO" route="rnl" depart="193" />
    <vehicle id="nachRechts_194" type="typeWO" route="rnl" depart="194" />
    <vehicle id="nachLinks_195" type="typeWO" route="lnr" depart="195" />
    <vehicle id="nachRechts_196" type="typeWO" route="rnl" depart="195" />
    <vehicle id="nachLinks_197" type="typeWO" route="lnr" depart="196" />
    <vehicle id="nachRechts_198" type="typeWO" route="rnl" depart="196" />
    <vehicle id="nachLinks_199" type="typeWO" route="lnr" depart="197" />
    <vehicle id="nachRechts_200" type="typeWO" route="rnl" depart="197" />
    <vehicle id="nachLinks_201" type="typeWO" route="lnr" depart="198" />
    <vehicle id="nachLinks_202" type="typeWO" route="lnr" depart="199" />
    <vehicle id="nachRechts_203" type="typeWO" route="rnl" depart="199" />
    <vehicle id="nachLinks_204" type="typeWO" route="lnr" depart="200" />
    <vehicle id="nachLinks_205" type="typeWO" route="lnr" depart="202" />
    <vehicle id="nachLinks_206" type="typeWO" route="lnr" depart="203" />
    <vehicle id="nachRechts_207" type="typeWO" route="rnl" depart="204" />
    <vehicle id="nachLinks_208" type="typeWO" route="lnr" depart="205" />
    <vehicle id="nachRechts_209" type="typeWO" route="rnl" depart="206" />
    <vehicle id="nachLinks_210" type="typeWO" route="lnr" depart="207" />
    <vehicle id="nachRechts_211" type="typeWO" route="rnl" depart="207" />
    <vehicle id="nachLinks_212" type="typeWO" route="lnr" depart="209" />
    <vehicle id="nachRechts_213" type="typeWO" route="rnl" depart="209" />
    <vehicle id="nachLinks_214" type="typeWO" route="lnr" depart="211" />
    <vehicle id="nachRechts_215" type="typeWO" route="rnl" depart="211" />
    <vehicle id="nachLinks_216" type="typeWO" route="lnr" depart="212" />
    <vehicle id="nachRechts_217" type="typeWO" route="rnl" depart="212" />
    <vehicle id="nachLinks_218" type="typeWO" route="lnr" depart="213" />
    <vehicle id="nachRechts_219" type="typeWO" route="rnl" depart="214" />
    <vehicle id="nachLinks_220" type="typeWO" route="lnr" depart="215" />
    <vehicle id="nachLinks_221" type="typeWO" route="lnr" depart="216" />
    <vehicle id="nachRechts_222" type="typeWO" route="rnl" depart="216" />
    <vehicle id="nachLinks_223" type="typeWO" route="lnr" depart="217" />
    <vehicle id="nachRechts_224" type="typeWO" route="rnl" depart="218" />
    <vehicle id="nachRechts_225" type="typeWO" route="rnl" depart="219" />
    <vehicle id="nachRechts_226" type="typeWO" route="rnl" depart="220" />
    <vehicle id="nachLinks_227" type="typeWO" route="lnr" depart="221" />
    <vehicle id="nachRechts_228" type="typeWO" route="rnl" depart="222" />
    <vehicle id="nachLinks_229" type="typeWO" route="lnr" depart="223" />
    <vehicle id="nachRechts_230" type="typeWO" route="rnl" depart="223" />
    <vehicle id="nachRechts_231" type="typeWO" route="rnl" depart="224" />
    <vehicle id="nachLinks_232" type="typeWO" route="lnr" depart="226" />
    <vehicle id="nachRechts_233" type="typeWO" route="rnl" depart="226" />
    <vehicle id="nachLinks_234" type="typeWO" route="lnr" depart="227" />
    <vehicle id="nachRechts_235" type="typeWO" route="rnl" depart="227" />
    <vehicle id="nachLinks_236" type="typeWO" route="lnr" depart="228" />
    <vehicle id="nachRechts_237" type="typeWO" route="rnl" depart="228" />
    <vehicle id="nachLinks_238" type="typeWO" route="lnr" depart="229" />
    <vehicle id="nachRechts_239" type="typeWO" route="rnl" depart="229" />
    <vehicle id="nachRechts_240" type="typeWO" route="rnl" depart="230" />
    <vehicle id="nachRechts_241" type="typeWO" route="rnl" depart="234" />
    <vehicle id="nachLinks_242" type="typeWO" route="lnr" depart="235" />
    <vehicle id="nachLinks_243" type="typeWO" route="lnr" depart="236" />
    <vehicle id="nachRechts_244" type="typeWO" route="rnl" depart="236" />
    <vehicle id="nachLinks_245" type="typeWO" route="lnr" depart="238" />
    <vehicle id="nachRechts_246" type="typeWO" route="rnl" depart="238" />
    <vehicle id="nachLinks_247" type="typeWO" route="lnr" depart="239" />
    <vehicle id="nachRechts_248" type="typeWO" route="rnl" depart="239" />
    <vehicle id="nachLinks_249" type="typeWO" route="lnr" depart="240" />
    <vehicle id="nachRechts_250" type="typeWO" route="rnl" depart="242" />
    <vehicle id="nachRechts_251" type="typeWO" route="rnl" depart="243" />
    <vehicle id="nachRechts_252" type="typeWO" route="rnl" depart="244" />
    <vehicle id="nachRechts_253" type="typeWO" route="rnl" depart="245" />
    <vehicle id="nachLinks_254" type="typeWO" route="lnr" depart="246" />
    <vehicle id="nachRechts_255" type="typeWO" route="rnl" depart="246" />
    <vehicle id="nachRechts_256" type="typeWO" route="rnl" depart="247" />
    <vehicle id="nachLinks_257" type="typeWO" route="lnr" depart="248" />
    <vehicle id="nachRechts_258" type="typeWO" route="rnl" depart="249" />
    <vehicle id="nachLinks_259" type="typeWO" route="lnr" depart="250" />
    <vehicle id="nachRechts_260" type="typeWO" route="rnl" depart="252" />
    <vehicle id="nachLinks_261" type="typeWO" route="lnr" depart="253" />
    <vehicle id="nachRechts_262" type="typeWO" route="rnl" depart="254" />
    <vehicle id="nachRechts_263" type="typeWO" route="rnl" depart="255" />
    <vehicle id="nachLinks_264" type="typeWO" route="lnr" depart="256" />
    <vehicle id="nachLinks_265" type="typeWO" route="lnr" depart="257" />
    <vehicle id="nachRechts_266" type="typeWO" route="rnl" depart="257" />
    <vehicle id="nachRechts_267" type="typeWO" route="rnl" depart="258" />
    <vehicle id="nachRechts_268" type="typeWO" route="rnl" depart="259" />
    <vehicle id="nachRechts_269" type="typeWO" route="rnl" depart="260" />
    <vehicle id="nachRechts_270" type="typeWO" route="rnl" depart="261" />
    <vehicle id="nachRechts_271" type="typeWO" route="rnl" depart="262" />
    <vehicle id="nachLinks_272" type="typeWO" route="lnr" depart="263" />
    <vehicle id="nachRechts_273" type="typeWO" route="rnl" depart="265" />
    <vehicle id="nachLinks_274" type="typeWO" route="lnr" depart="267" />
    <vehicle id="nachLinks_275" type="typeWO" route="lnr" depart="268" />
    <vehicle id="nachRechts_276" type="typeWO" route="rnl" depart="268" />
    <vehicle id="nachLinks_277" type="typeWO" route="lnr" depart="269" />
    <vehicle id="nachLinks_278" type="typeWO" route="lnr" depart="270" />
    <vehicle id="nachRechts_279" type="typeWO" route="rnl" depart="270" />
    <vehicle id="nachRechts_280" type="typeWO" route="rnl" depart="272" />
    <vehicle id="nachLinks_281" type="typeWO" route="lnr" depart="275" />
    <vehicle id="nachRechts_282" type="typeWO" route="rnl" depart="275" />
    <vehicle id="nachLinks_283" type="typeWO" route="lnr" depart="277" />
    <vehicle id="nachRechts_284" type="typeWO" route="rnl" depart="278" />
    <vehicle id="nachLinks_285" type="typeWO" route="lnr" depart="279" />
    <vehicle id="nachRechts_286" type="typeWO" route="rnl" depart="279" />
    <vehicle id="nachLinks_287" type="typeWO" route="lnr" depart="280" />
    <vehicle id="nachLinks_288" type="typeWO" route="lnr" depart="282" />
    <vehicle id="nachRechts_289" type="typeWO" route="rnl" depart="282" />
    <vehicle id="nachLinks_290" type="typeWO" route="lnr" depart="284" />
    <vehicle id="nachLinks_291" type="typeWO" route="lnr" depart="286" />
    <vehicle id="nachLinks_292" type="typeWO" route="lnr" depart="287" />
    <vehicle id="nachLinks_293" type="typeWO" route="lnr" depart="288" />
    <vehicle id="nachLinks_294" type="typeWO" route="lnr" depart="289" />
    <vehicle id="nachRechts_295" type="typeWO" route="rnl" depart="289" />
    <vehicle id="nachLinks_296" type="typeWO" route="lnr" depart="291" />
    <vehicle id="nachLinks_297" type="typeWO" route="lnr" depart="292" />
    <vehicle id="nachLinks_298" type="typeWO" route="lnr" depart="293" />
    <vehicle id="nachRechts_299" type="typeWO" route="rnl" depart="293" />
    <vehicle id="nachLinks_300" type="typeWO" route="lnr" depart="294" />
    <vehicle id="nachRechts_301" type="typeWO" route="rnl" depart="295" />
    <vehicle id="nachLinks_302" type="typeWO" route="lnr" depart="296" />
    <vehicle id="nachLinks_303" type="typeWO" route="lnr" depart="297" />
    <vehicle id="nachRechts_304" type="typeWO" route="rnl" depart="297" />
    <vehicle id="nachLinks_305" type="typeWO" route="lnr" depart="298" />
    <vehicle id="nachRechts_306" type="typeWO" route="rnl" depart="298" />
    <vehicle id="nachLinks_307" type="typeWO" route="lnr" depart="299" />
    <vehicle id="nachRechts_308" type="typeWO" route="rnl" depart="300" />
    <vehicle id="nachRechts_309" type="typeWO" route="rnl" depart="301" />
    <vehicle id="nachRechts_310" type="typeWO" route="rnl" depart="303" />
    <vehicle id="nachLinks_311" type="typeWO" route="lnr" depart="304" />
    <vehicle id="nachLinks_312" type="typeWO" route="lnr" depart="305" />
    <vehicle id="nachRechts_313" type="typeWO" route="rnl" depart="308" />
    <vehicle id="nachLinks_314" type="typeWO" route="lnr" depart="310" />
    <vehicle id="nachLinks_315" type="typeWO" route="lnr" depart="311" />
    <vehicle id="nachLinks_316" type="typeWO" route="lnr" depart="313" />
    <vehicle id="nachLinks_317" type="typeWO" route="lnr" depart="315" />
    <vehicle id="nachLinks_318" type="typeWO" route="lnr" depart="318" />
    <vehicle id="down_319" type="typeNS" route="nns" depart="318" color="1,0,0"/>
    <vehicle id="nachRechts_320" type="typeWO" route="rnl" depart="319" />
    <vehicle id="nachRechts_321" type="typeWO" route="rnl" depart="321" />
    <vehicle id="nachLinks_322" type="typeWO" route="lnr" depart="322" />
    <vehicle id="nachRechts_323" type="typeWO" route="rnl" depart="323" />
    <vehicle id="nachLinks_324" type="typeWO" route="lnr" depart="325" />
    <vehicle id="nachRechts_325" type="typeWO" route="rnl" depart="325" />
    <vehicle id="nachLinks_326" type="typeWO" route="lnr" depart="326" />
    <vehicle id="nachRechts_327" type="typeWO" route="rnl" depart="326" />
    <vehicle id="nachRechts_328" type="typeWO" route="rnl" depart="327" />
    <vehicle id="nachLinks_329" type="typeWO" route="lnr" depart="329" />
    <vehicle id="nachLinks_330" type="typeWO" route="lnr" depart="330" />
    <vehicle id="nachRechts_331" type="typeWO" route="rnl" depart="330" />
    <vehicle id="nachLinks_332" type="typeWO" route="lnr" depart="331" />
    <vehicle id="nachLinks_333" type="typeWO" route="lnr" depart="332" />
    <vehicle id="nachRechts_334" type="typeWO" route="rnl" depart="332" />
    <vehicle id="nachRechts_335" type="typeWO" route="rnl" depart="333" />
    <vehicle id="nachLinks_336" type="typeWO" route="lnr" depart="335" />
    <vehicle id="nachRechts_337" type="typeWO" route="rnl" depart="335" />
    <vehicle id="nachRechts_338" type="typeWO" route="rnl" depart="336" />
    <vehicle id="nachRechts_339" type="typeWO" route="rnl" depart="338" />
    <vehicle id="nachRechts_340" type="typeWO" route="rnl" depart="339" />
    <vehicle id="nachLinks_341" type="typeWO" route="lnr" depart="340" />
    <vehicle id="nachRechts_342" type="typeWO" route="rnl" depart="340" />
    <vehicle id="nachLinks_343" type="typeWO" route="lnr" depart="341" />
    <vehicle id="nachRechts_344" type="typeWO" route="rnl" depart="341" />
    <vehicle id="nachLinks_345" type="typeWO" route="lnr" depart="342" />
    <vehicle id="nachLinks_346" type="typeWO" route="lnr" depart="343" />
    <vehicle id="nachRechts_347" type="typeWO" route="rnl" depart="343" />
    <vehicle id="nachRechts_348" type="typeWO" route="rnl" depart="344" />
    <vehicle id="down_349" type="typeNS" route="nns" depart="344" color="1,0,0"/>
    <vehicle id="nachRechts_350" type="typeWO" route="rnl" depart="345" />
    <vehicle id="nachLinks_351" type="typeWO" route="lnr" depart="346" />
    <vehicle id="nachRechts_352" type="typeWO" route="rnl" depart="346" />
    <vehicle id="nachLinks_353" type="typeWO" route="lnr" depart="351" />
    <vehicle id="nachLinks_354" type="typeWO" route="lnr" depart="352" />
    <vehicle id="nachRechts_355" type="typeWO" route="rnl" depart="352" />
    <vehicle id="nachLinks_356" type="typeWO" route="lnr" depart="353" />
    <vehicle id="nachLinks_357" type="typeWO" route="lnr" depart="354" />
    <vehicle id="nachLinks_358" type="typeWO" route="lnr" depart="355" />
    <vehicle id="nachLinks_359" type="typeWO" route="lnr" depart="356" />
    <vehicle id="nachLinks_360" type="typeWO" route="lnr" depart="357" />
    <vehicle id="nachLinks_361" type="typeWO" route="lnr" depart="360" />
    <vehicle id="nachRechts_362" type="typeWO" route="rnl" depart="360" />
    <vehicle id="nachLinks_363" type="typeWO" route="lnr" depart="361" />
    <vehicle id="nachRechts_364" type="typeWO" route="rnl" depart="361" />
    <vehicle id="nachLinks_365" type="typeWO" route="lnr" depart="362" />
    <vehicle id="nachLinks_366" type="typeWO" route="lnr" depart="363" />
    <vehicle id="nachRechts_367" type="typeWO" route="rnl" depart="364" />
    <vehicle id="nachLinks_368" type="typeWO" route="lnr" depart="367" />
    <vehicle id="nachRechts_369" type="typeWO" route="rnl" depart="367" />
    <vehicle id="nachRechts_370" type="typeWO" route="rnl" depart="370" />
    <vehicle id="nachLinks_371" type="typeWO" route="lnr" depart="371" />
    <vehicle id="nachRechts_372" type="typeWO" route="rnl" depart="371" />
    <vehicle id="nachLinks_373" type="typeWO" route="lnr" depart="372" />
    <vehicle id="nachLinks_374" type="typeWO" route="lnr" depart="375" />
    <vehicle id="nachLinks_375" type="typeWO" route="lnr" depart="376" />
    <vehicle id="nachRechts_376" type="typeWO" route="rnl" depart="376" />
    <vehicle id="nachLinks_377" type="typeWO" route="lnr" depart="377" />
    <vehicle id="nachRechts_378" type="typeWO" route="rnl" depart="377" />
    <vehicle id="down_379" type="typeNS" route="nns" depart="377" color="1,0,0"/>
    <vehicle id="nachLinks_380" type="typeWO" route="lnr" depart="379" />
    <vehicle id="nachRechts_381" type="typeWO" route="rnl" depart="380" />
    <vehicle id="nachLinks_382" type="typeWO" route="lnr" depart="381" />
    <vehicle id="nachRechts_383" type="typeWO" route="rnl" depart="381" />
    <vehicle id="nachLinks_384" type="typeWO" route="lnr" depart="383" />
    <vehicle id="nachRechts_385" type="typeWO" route="rnl" depart="383" />
    <vehicle id="nachRechts_386" type="typeWO" route="rnl" depart="384" />
    <vehicle id="nachLinks_387" type="typeWO" route="lnr" depart="385" />
    <vehicle id="nachRechts_388" type="typeWO" route="rnl" depart="385" />
    <vehicle id="nachRechts_389" type="typeWO" route="rnl" depart="386" />
    <vehicle id="nachLinks_390" type="typeWO" route="lnr" depart="387" />
    <vehicle id="nachRechts_391" type="typeWO" route="rnl" depart="388" />
    <vehicle id="nachRechts_392" type="typeWO" route="rnl" depart="389" />
    <vehicle id="nachLinks_393" type="typeWO" route="lnr" depart="390" />
    <vehicle id="nachRechts_394" type="typeWO" route="rnl" depart="390" />
    <vehicle id="nachLinks_395" type="typeWO" route="lnr" depart="391" />
    <vehicle id="nachRechts_396" type="typeWO" route="rnl" depart="391" />
    <vehicle id="nachLinks_397" type="typeWO" route="lnr" depart="392" />
    <vehicle id="nachRechts_398" type="typeWO" route="rnl" depart="392" />