<?xml version="1.0" encoding="UTF-8"?>

<!-- generated on 2025-10-31 09:52:16 by Eclipse SUMO netedit Version 1.24.0
-->

<additional xmlns:xsi="http://www.w3.org/2001/XMLSchema-instance" xsi:noNamespaceSchemaLocation="http://sumo.dlr.de/xsd/additional_file.xsd">
    <!-- Detectors -->
    <inductionLoop id="e1_0" lane="E2_0" pos="29.86" period="300.00" file="e1_0.xml"/>
</additional>
