<?xml version="1.0" encoding="UTF-8"?>

<!-- generated on 2026-07-09T20:41:36.343401+01:00 by Eclipse SUMO sumo 1.26.0
-->

<sumoConfiguration xmlns:xsi="http://www.w3.org/2001/XMLSchema-instance" xsi:noNamespaceSchemaLocation="http://sumo.dlr.de/xsd/sumoConfiguration.xsd">

    <input>
        <net-file value="TT1.net.xml"/>
        <route-files value="TT1.rou.xml"/>
        <additional-files value="TT1.add.xml"/>
    </input>

</sumoConfiguration>
